gem5 Simulator System.  https://www.gem5.org
gem5 is copyrighted software; use the --copyright option for details.

gem5 version 23.1.0.0
gem5 compiled Jul 22 2024 07:28:34
gem5 started Jul 22 2024 12:20:53
gem5 executing on gem5, pid 91032
command line: ./build/X86/gem5.opt --outdir=DDR4_bfs_m5out --stats-file=hello.result ./configs/deprecated/example/se.py --num-cpu=1 --cpu-type=X86O3CPU --sys-clock=1GHz --cpu-clock=3GHz --mem-type=DramSim3 --mem-size=8GB --caches --l2cache --num-l2caches=1 --l1d_size=32kB --l1i_size=32kB --l2_size=4MB --l1d_assoc=8 --l1i_assoc=8 --l2_assoc=16 --cacheline_size=64 --cmd=/home/yue/benchmark/gapbs/bfs '--option=-g n 10 '
